_audit_creation_date      'Nov. 25, 2024'
_audit_creation_method    'Draft CIF file generated with Atomsk'
 
_chemical_name_common             ?
_chemical_melting_point           ?
_chemical_formula_iupac           'Si22 O48 B2'
_chemical_formula_moiety          'Si22 O48 B2'
_chemical_formula_sum             'Si22 O48 B2'
_chemical_formula_weight          1407.442
_chemical_compound_source         ?
_chemical_absolute_configuration  ?
_exptl_crystal_description        'EDIT-ENTRY'
_diffrn_measurement_device_type   'EDIT-ENTRY'
 
_space_group_IT_number            1
_space_group_crystal_system       monoclinic
_symmetry_space_group_name_Hall   'P 1'
_symmetry_space_group_name_H-M    'P 1'
 
loop_
_space_group_symop_operation_xyz
'+x,+y,+z'
 
_cell_length_a                    10.0691
_cell_length_b                    10.0691
_cell_length_c                    11.0438
_cell_angle_alpha                 90.0000
_cell_angle_beta                  90.0000
_cell_angle_gamma                 120.0000
_cell_volume                      839.7688
 
loop_
 _atom_site_label
 _atom_site_type_symbol
 _atom_site_fract_x
 _atom_site_fract_y
 _atom_site_fract_z
Si1  Si  0.260817  0.260817  0.000000
Si2  Si  -0.000000  0.239183  0.333333
Si3  Si  0.239183  0.000000  0.166667
O1  O  0.126112  0.207639  0.398835
O2  O  0.292361  0.418473  0.065501
O3  O  0.081528  0.373889  0.232168
O4  O  0.207639  0.126112  0.101165
O5  O  0.373888  0.081528  0.267832
O6  O  0.418472  0.292361  0.434499
Si4  Si  0.760817  0.260817  0.000000
Si5  Si  0.500000  0.239183  0.333333
Si6  Si  0.739183  0.000000  0.166667
O7  O  0.626112  0.207639  0.398835
O8  O  0.792361  0.418473  0.065501
O9  O  0.581528  0.373889  0.232168
O10  O  0.707639  0.126112  0.101165
O11  O  0.873888  0.081528  0.267832
O12  O  0.918472  0.292361  0.434499
Si7  Si  0.260817  0.760817  0.000000
Si8  Si  -0.000000  0.739183  0.333333
Si9  Si  0.239183  0.500000  0.166667
O13  O  0.126112  0.707639  0.398835
O14  O  0.292361  0.918473  0.065501
O15  O  0.081528  0.873889  0.232168
O16  O  0.207639  0.626112  0.101165
O17  O  0.373888  0.581528  0.267832
O18  O  0.418472  0.792361  0.434499
Si10  Si  0.760817  0.760817  0.000000
Si11  Si  0.500000  0.739183  0.333333
Si12  Si  0.739183  0.500000  0.166667
O19  O  0.626112  0.707639  0.398835
O20  O  0.792361  0.918473  0.065501
O21  O  0.581528  0.873889  0.232168
O22  O  0.707639  0.626112  0.101165
O23  O  0.873888  0.581528  0.267832
O24  O  0.918472  0.792361  0.434499
B1  B  0.260817  0.260817  0.500000
Si13  Si  -0.000000  0.239183  0.833333
Si14  Si  0.239183  0.000000  0.666667
O25  O  0.126112  0.207639  0.898835
O26  O  0.292361  0.418473  0.565501
O27  O  0.081528  0.373889  0.732168
O28  O  0.207639  0.126112  0.601165
O29  O  0.373888  0.081528  0.767832
O30  O  0.418472  0.292361  0.934499
Si15  Si  0.760817  0.260817  0.500000
Si16  Si  0.500000  0.239183  0.833333
Si17  Si  0.739183  0.000000  0.666667
O31  O  0.626112  0.207639  0.898835
O32  O  0.792361  0.418473  0.565501
O33  O  0.581528  0.373889  0.732168
O34  O  0.707639  0.126112  0.601165
O35  O  0.873888  0.081528  0.767832
O36  O  0.918472  0.292361  0.934499
Si18  Si  0.260817  0.760817  0.500000
Si19  Si  -0.000000  0.739183  0.833333
Si20  Si  0.239183  0.500000  0.666667
O37  O  0.126112  0.707639  0.898835
O38  O  0.292361  0.918473  0.565501
O39  O  0.081528  0.873889  0.732168
O40  O  0.207639  0.626112  0.601165
O41  O  0.373888  0.581528  0.767832
O42  O  0.418472  0.792361  0.934499
Si21  Si  0.760817  0.760817  0.500000
Si22  Si  0.500000  0.739183  0.833333
B2  B  0.739183  0.500000  0.666667
O43  O  0.626112  0.707639  0.898835
O44  O  0.792361  0.918473  0.565501
O45  O  0.581528  0.873889  0.732168
O46  O  0.707639  0.626112  0.601165
O47  O  0.873888  0.581528  0.767832
O48  O  0.918472  0.792361  0.934499
